/*--------------------------------*- C++ -*----------------------------------*\
| =========                 |                                                 |
| \\      /  F ield         | OpenFOAM: The Open Source CFD Toolbox           |
|  \\    /   O peration     | Version:  v2512                                 |
|   \\  /    A nd           | Website:  www.openfoam.com                      |
|    \\/     M anipulation  |                                                 |
\*---------------------------------------------------------------------------*/
FoamFile
{
    version     2.0;
    format      ascii;
    class       dictionary;
    object      blockMeshDict;
}
// * * * * * * * * * * * * * * * * * * * * * * * * * * * * * * * * * * * * * //

scale   1;

vertices
(
    (0     0      0)
    (0.02  0      0)
    (0.02  0.001  0)
    (0     0.001  0)
    (0     0      0.00005)
    (0.02  0      0.00005)
    (0.02  0.001  0.00005)
    (0     0.001  0.00005)
);

blocks
(
    hex (0 1 2 3 4 5 6 7) (400 4 1) simpleGrading (1 1 1)
);

edges
(
);

boundary
(
    coldWall
    {
        type wall;
        faces
        (
            (0 4 7 3)
        );
    }

    vapourReservoir
    {
        type patch;
        faces
        (
            (1 2 6 5)
        );
    }

    bottom
    {
        type symmetryPlane;
        faces
        (
            (0 1 5 4)
        );
    }

    top
    {
        type symmetryPlane;
        faces
        (
            (3 7 6 2)
        );
    }

    frontAndBack
    {
        type empty;
        faces
        (
            (0 3 2 1)
            (4 5 6 7)
        );
    }
);

mergePatchPairs
(
);

// ************************************************************************* //
